version 2
1
9
.tran 100n 10m{return}.kicad adjustpaths{return}.save all{return}.probe alli
1
1
V(Net-_Q2-S_)
 
