version 2
1
9
.tran 1n 10u{return}.kicad adjustpaths{return}.save all{return}.probe alli
2
2
I(R2)
 
1
V(Net-_R1-Pad1_)
 
